Version 4
SHEET 1 880 680
WIRE 560 -176 560 -192
WIRE 560 -176 416 -176
WIRE 768 -176 560 -176
WIRE 416 -160 416 -176
WIRE 768 -160 768 -176
WIRE 560 -80 560 -176
WIRE 272 -64 240 -64
WIRE 416 -64 416 -80
WIRE 416 -64 352 -64
WIRE 528 -64 416 -64
WIRE 256 -48 96 -48
WIRE 768 -48 768 -80
WIRE 768 -48 592 -48
WIRE 528 -32 496 -32
WIRE 192 48 192 -160
WIRE 96 64 96 -48
WIRE 160 64 96 64
WIRE 256 80 256 -48
WIRE 256 80 224 80
WIRE 368 80 256 80
WIRE 496 80 496 -32
WIRE 496 80 448 80
WIRE 560 80 496 80
WIRE 768 80 768 -48
WIRE 768 80 640 80
WIRE -80 96 -160 96
WIRE 64 96 0 96
WIRE 160 96 64 96
WIRE -160 112 -160 96
WIRE 64 112 64 96
WIRE 192 128 192 112
WIRE -160 224 -160 192
FLAG -160 224 0
FLAG 560 -16 0
FLAG 192 128 0
FLAG 560 -272 0
FLAG 64 192 0
FLAG 192 -240 0
FLAG 240 -64 0
SYMBOL res 48 96 R0
SYMATTR InstName R1
SYMATTR Value 100k
SYMBOL res 16 80 R90
WINDOW 0 0 56 VBottom 2
WINDOW 3 32 56 VTop 2
SYMATTR InstName R2
SYMATTR Value 100k
SYMBOL OpAmps\\LTC6079 192 80 R0
SYMATTR InstName U1
SYMBOL OpAmps\\LTC6079 560 -48 R0
SYMATTR InstName U2
SYMBOL res 464 64 R90
WINDOW 0 0 56 VBottom 2
WINDOW 3 32 56 VTop 2
SYMATTR InstName R3
SYMATTR Value 11.5k
SYMBOL res 656 64 R90
WINDOW 0 0 56 VBottom 2
WINDOW 3 32 56 VTop 2
SYMATTR InstName R4
SYMATTR Value 990k
SYMBOL res 432 -64 R180
WINDOW 0 36 76 Left 2
WINDOW 3 36 40 Left 2
SYMATTR InstName R5
SYMATTR Value 13k
SYMBOL voltage -160 96 R0
WINDOW 3 -183 -37 Left 2
WINDOW 123 0 0 Left 0
WINDOW 39 0 0 Left 0
SYMATTR InstName V1
SYMATTR Value SINE(6.05 0.15 10)
SYMBOL voltage 560 -176 R180
WINDOW 0 24 96 Left 2
WINDOW 3 24 16 Left 2
WINDOW 123 0 0 Left 0
WINDOW 39 0 0 Left 0
SYMATTR InstName V2
SYMATTR Value 5
SYMBOL voltage 192 -144 R180
WINDOW 0 24 96 Left 2
WINDOW 3 24 16 Left 2
WINDOW 123 0 0 Left 0
WINDOW 39 0 0 Left 0
SYMATTR InstName V3
SYMATTR Value 5
SYMBOL res 368 -80 R90
WINDOW 0 0 56 VBottom 2
WINDOW 3 32 56 VTop 2
SYMATTR InstName R7
SYMATTR Value 20k
SYMBOL res 752 -176 R0
SYMATTR InstName R6
SYMATTR Value 10k
TEXT -344 248 Left 2 !.tran 1
